<?xml version="1.0" encoding="UTF-8"?>

<!-- generated on 10/15/18 11:22:59 by Eclipse SUMO netedit Version 1.0.0
<configuration xmlns:xsi="http://www.w3.org/2001/XMLSchema-instance" xsi:noNamespaceSchemaLocation="http://sumo.dlr.de/xsd/netconvertConfiguration.xsd">

    <output>
        <output-file value="C:\Users\caiof\Desktop\IC-Lancaster\one_junction\sumo\one_junction.net.xml"/>
    </output>

    <processing>
        <offset.disable-normalization value="true"/>
    </processing>

    <junctions>
        <no-turnarounds value="true"/>
    </junctions>

</configuration>
-->

<net version="1.0" junctionCornerDetail="5" limitTurnSpeed="5.50" xmlns:xsi="http://www.w3.org/2001/XMLSchema-instance" xsi:noNamespaceSchemaLocation="http://sumo.dlr.de/xsd/net_file.xsd">

    <location netOffset="0.00,0.00" convBoundary="-40.00,-40.00,40.00,40.00" origBoundary="10000000000.00,10000000000.00,-10000000000.00,-10000000000.00" projParameter="!"/>

    <edge id=":E0_0" function="internal">
        <lane id=":E0_0_0" index="0" speed="6.51" length="9.03" shape="-1.60,7.20 -1.95,4.75 -3.00,3.00 -4.75,1.95 -7.20,1.60"/>
    </edge>
    <edge id=":E0_1" function="internal">
        <lane id=":E0_1_0" index="0" speed="13.89" length="14.40" shape="-1.60,7.20 -1.60,-7.20"/>
    </edge>
    <edge id=":E0_2" function="internal">
        <lane id=":E0_2_0" index="0" speed="8.00" length="5.93" shape="-1.60,7.20 -1.05,3.35 0.00,1.60"/>
    </edge>
    <edge id=":E0_12" function="internal">
        <lane id=":E0_12_0" index="0" speed="8.00" length="8.26" shape="0.00,1.60 0.60,0.60 3.35,-1.05 7.20,-1.60"/>
    </edge>
    <edge id=":E0_3" function="internal">
        <lane id=":E0_3_0" index="0" speed="6.51" length="9.03" shape="7.20,1.60 4.75,1.95 3.00,3.00 1.95,4.75 1.60,7.20"/>
    </edge>
    <edge id=":E0_4" function="internal">
        <lane id=":E0_4_0" index="0" speed="13.89" length="14.40" shape="7.20,1.60 -7.20,1.60"/>
    </edge>
    <edge id=":E0_5" function="internal">
        <lane id=":E0_5_0" index="0" speed="8.00" length="14.19" shape="7.20,1.60 3.35,1.05 0.60,-0.60 -1.05,-3.35 -1.60,-7.20"/>
    </edge>
    <edge id=":E0_6" function="internal">
        <lane id=":E0_6_0" index="0" speed="6.51" length="9.03" shape="1.60,-7.20 1.95,-4.75 3.00,-3.00 4.75,-1.95 7.20,-1.60"/>
    </edge>
    <edge id=":E0_7" function="internal">
        <lane id=":E0_7_0" index="0" speed="13.89" length="14.40" shape="1.60,-7.20 1.60,7.20"/>
    </edge>
    <edge id=":E0_8" function="internal">
        <lane id=":E0_8_0" index="0" speed="8.00" length="5.93" shape="1.60,-7.20 1.05,-3.35 0.00,-1.60"/>
    </edge>
    <edge id=":E0_13" function="internal">
        <lane id=":E0_13_0" index="0" speed="8.00" length="8.26" shape="0.00,-1.60 -0.60,-0.60 -3.35,1.05 -7.20,1.60"/>
    </edge>
    <edge id=":E0_9" function="internal">
        <lane id=":E0_9_0" index="0" speed="6.51" length="9.03" shape="-7.20,-1.60 -4.75,-1.95 -3.00,-3.00 -1.95,-4.75 -1.60,-7.20"/>
    </edge>
    <edge id=":E0_10" function="internal">
        <lane id=":E0_10_0" index="0" speed="13.89" length="14.40" shape="-7.20,-1.60 7.20,-1.60"/>
    </edge>
    <edge id=":E0_11" function="internal">
        <lane id=":E0_11_0" index="0" speed="8.00" length="14.19" shape="-7.20,-1.60 -3.35,-1.05 -0.60,0.60 1.05,3.35 1.60,7.20"/>
    </edge>

    <edge id="L0" from="E0" to="E1" priority="-1">
        <lane id="L0_0" index="0" speed="13.89" length="32.80" shape="-7.20,1.60 -40.00,1.60"/>
    </edge>
    <edge id="L1" from="E1" to="E0" priority="-1">
        <lane id="L1_0" index="0" speed="13.89" length="32.80" shape="-40.00,-1.60 -7.20,-1.60"/>
    </edge>
    <edge id="L2" from="E0" to="E3" priority="-1">
        <lane id="L2_0" index="0" speed="13.89" length="32.80" shape="-1.60,-7.20 -1.60,-40.00"/>
    </edge>
    <edge id="L3" from="E3" to="E0" priority="-1">
        <lane id="L3_0" index="0" speed="13.89" length="32.80" shape="1.60,-40.00 1.60,-7.20"/>
    </edge>
    <edge id="L4" from="E0" to="E2" priority="-1">
        <lane id="L4_0" index="0" speed="13.89" length="32.80" shape="7.20,-1.60 40.00,-1.60"/>
    </edge>
    <edge id="L5" from="E2" to="E0" priority="-1">
        <lane id="L5_0" index="0" speed="13.89" length="32.80" shape="40.00,1.60 7.20,1.60"/>
    </edge>
    <edge id="L6" from="E0" to="E4" priority="-1">
        <lane id="L6_0" index="0" speed="13.89" length="32.80" shape="1.60,7.20 1.60,40.00"/>
    </edge>
    <edge id="L7" from="E4" to="E0" priority="-1">
        <lane id="L7_0" index="0" speed="13.89" length="32.80" shape="-1.60,40.00 -1.60,7.20"/>
    </edge>

    <junction id="E0" type="priority" x="0.00" y="0.00" incLanes="L7_0 L5_0 L3_0 L1_0" intLanes=":E0_0_0 :E0_1_0 :E0_12_0 :E0_3_0 :E0_4_0 :E0_5_0 :E0_6_0 :E0_7_0 :E0_13_0 :E0_9_0 :E0_10_0 :E0_11_0" shape="-3.20,7.20 3.20,7.20 3.64,4.98 4.20,4.20 4.98,3.64 5.98,3.31 7.20,3.20 7.20,-3.20 4.98,-3.64 4.20,-4.20 3.64,-4.98 3.31,-5.98 3.20,-7.20 -3.20,-7.20 -3.64,-4.98 -4.20,-4.20 -4.98,-3.64 -5.98,-3.31 -7.20,-3.20 -7.20,3.20 -4.98,3.64 -4.20,4.20 -3.64,4.98 -3.31,5.98">
        <request index="0"  response="000000000000" foes="000100010000" cont="0"/>
        <request index="1"  response="000000000000" foes="111100110000" cont="0"/>
        <request index="2"  response="000011000000" foes="110011110000" cont="1"/>
        <request index="3"  response="000010000000" foes="100010000000" cont="0"/>
        <request index="4"  response="000110000111" foes="100110000111" cont="0"/>
        <request index="5"  response="011110000110" foes="011110000110" cont="0"/>
        <request index="6"  response="000000000000" foes="010000000100" cont="0"/>
        <request index="7"  response="000000000000" foes="110000111100" cont="0"/>
        <request index="8"  response="000000000011" foes="110000110011" cont="1"/>
        <request index="9"  response="000000000010" foes="000000100010" cont="0"/>
        <request index="10" response="000111000110" foes="000111100110" cont="0"/>
        <request index="11" response="000110011110" foes="000110011110" cont="0"/>
    </junction>
    <junction id="E1" type="dead_end" x="-40.00" y="0.00" incLanes="L0_0" intLanes="" shape="-40.00,0.00 -40.00,3.20 -40.00,0.00"/>
    <junction id="E2" type="dead_end" x="40.00" y="0.00" incLanes="L4_0" intLanes="" shape="40.00,0.00 40.00,-3.20 40.00,0.00"/>
    <junction id="E3" type="dead_end" x="0.00" y="-40.00" incLanes="L2_0" intLanes="" shape="0.00,-40.00 -3.20,-40.00 0.00,-40.00"/>
    <junction id="E4" type="dead_end" x="0.00" y="40.00" incLanes="L6_0" intLanes="" shape="0.00,40.00 3.20,40.00 0.00,40.00"/>

    <junction id=":E0_12_0" type="internal" x="0.00" y="1.60" incLanes=":E0_2_0 L3_0" intLanes=":E0_4_0 :E0_5_0 :E0_6_0 :E0_7_0 :E0_10_0 :E0_11_0"/>
    <junction id=":E0_13_0" type="internal" x="0.00" y="-1.60" incLanes=":E0_8_0 L7_0" intLanes=":E0_0_0 :E0_1_0 :E0_4_0 :E0_5_0 :E0_10_0 :E0_11_0"/>

    <connection from="L1" to="L2" fromLane="0" toLane="0" via=":E0_9_0" dir="r" state="m"/>
    <connection from="L1" to="L4" fromLane="0" toLane="0" via=":E0_10_0" dir="s" state="m"/>
    <connection from="L1" to="L6" fromLane="0" toLane="0" via=":E0_11_0" dir="l" state="m"/>
    <connection from="L3" to="L4" fromLane="0" toLane="0" via=":E0_6_0" dir="r" state="M"/>
    <connection from="L3" to="L6" fromLane="0" toLane="0" via=":E0_7_0" dir="s" state="M"/>
    <connection from="L3" to="L0" fromLane="0" toLane="0" via=":E0_8_0" dir="l" state="m"/>
    <connection from="L5" to="L6" fromLane="0" toLane="0" via=":E0_3_0" dir="r" state="m"/>
    <connection from="L5" to="L0" fromLane="0" toLane="0" via=":E0_4_0" dir="s" state="m"/>
    <connection from="L5" to="L2" fromLane="0" toLane="0" via=":E0_5_0" dir="l" state="m"/>
    <connection from="L7" to="L0" fromLane="0" toLane="0" via=":E0_0_0" dir="r" state="M"/>
    <connection from="L7" to="L2" fromLane="0" toLane="0" via=":E0_1_0" dir="s" state="M"/>
    <connection from="L7" to="L4" fromLane="0" toLane="0" via=":E0_2_0" dir="l" state="m"/>

    <connection from=":E0_0" to="L0" fromLane="0" toLane="0" dir="r" state="M"/>
    <connection from=":E0_1" to="L2" fromLane="0" toLane="0" dir="s" state="M"/>
    <connection from=":E0_2" to="L4" fromLane="0" toLane="0" via=":E0_12_0" dir="l" state="m"/>
    <connection from=":E0_12" to="L4" fromLane="0" toLane="0" dir="l" state="M"/>
    <connection from=":E0_3" to="L6" fromLane="0" toLane="0" dir="r" state="M"/>
    <connection from=":E0_4" to="L0" fromLane="0" toLane="0" dir="s" state="M"/>
    <connection from=":E0_5" to="L2" fromLane="0" toLane="0" dir="l" state="M"/>
    <connection from=":E0_6" to="L4" fromLane="0" toLane="0" dir="r" state="M"/>
    <connection from=":E0_7" to="L6" fromLane="0" toLane="0" dir="s" state="M"/>
    <connection from=":E0_8" to="L0" fromLane="0" toLane="0" via=":E0_13_0" dir="l" state="m"/>
    <connection from=":E0_13" to="L0" fromLane="0" toLane="0" dir="l" state="M"/>
    <connection from=":E0_9" to="L2" fromLane="0" toLane="0" dir="r" state="M"/>
    <connection from=":E0_10" to="L4" fromLane="0" toLane="0" dir="s" state="M"/>
    <connection from=":E0_11" to="L6" fromLane="0" toLane="0" dir="l" state="M"/>

</net>
